*******************************************************************
* Model name       : BAT54FILM
* Description      : Small Signal Schottky Diode
* Package type     : SOT-23
*******************************************************************
*model BAT54FILM     anode
*                    | cathode
*                    | |
.subckt BAT54FILM    A K
d1 A K dx
.model dx    D(IS=45.835E-9 N=1.0629 RS=1.7666 IKF=3.8464E-3 CJO=10.579E-12 M=.32844
+         VJ=.3905 ISR=12.053E-9 NR=4.9950 FC=0.5 XTI=2 EG=0.69 TT=0)
*    STMicroelectronics    case=SOT-23   Delivery= Tape&reel
.ends
*$
