*******************************************************************
* Model name       : LED NSPW500BS
* Description      : LED de Base
* Package type     : Standard Diam 5mm
*******************************************************************
*model NSPW500BS        anode
*                    | cathode
*                    | |
.subckt NSPW500BS       A K
d1 A K dx
.model NSPW500BS D(Is=.27n Rs=5.65 N=6.79 Cjo=42p Xti=200 Iave=30m Vpk=5 mfg=Nichia type=LED)
.ends
*$
