*******************************************************************
* Model name       : NMMOS FDS4559_N
* Description      : Modèle proche du BS 170
* Package type     : T092?
*******************************************************************
*model FDS4559_N       Drain
*                    	| Grid
*                    	| | |Source
		      
.subckt FDS4559_N      D G S
* ci-dessous à modifier
d1 A K dx
.model FDS4559_N VDMOS(Rg=3 Vto=2.2 Rd=22m Rs=5.5m Rb=28m Kp=10 lambda=.01 Cgdmax=.4n Cgdmin=.1n Cgs=.64n Cjo=.2n Is=25p ksubthres=.1 mfg=Fairchild Vds=60 Ron=55m Qg=12.5n)
.ends
*$
