*******************************************************************
* Model name       : Zener BZX84C6V2L
* Description      : Zener 6V2
* Package type     : Traversant
*******************************************************************
*model BZX84C6V2L      anode
*                    	| cathode
*                    	| |
.subckt BZX84C6V2L     A K
d1 A K dx
.model BZX84C6V2L D(Is=1.5n Rs=.5 Cjo=185p nbv=3 bv=6.2 Ibv=1m Vpk=6.2 mfg=OnSemi type=Zener)
.ends
*$
